<?xml version="1.0" encoding="UTF-8"?>

<!-- generated on 2024-10-06 19:29:44 by Eclipse SUMO netconvert Version 1.20.0
<configuration xmlns:xsi="http://www.w3.org/2001/XMLSchema-instance" xsi:noNamespaceSchemaLocation="http://sumo.dlr.de/xsd/netconvertConfiguration.xsd">

    <input>
        <osm-files value="map.osm"/>
    </input>

    <output>
        <output-file value="map.net.xml"/>
    </output>

    <projection>
        <proj.utm value="true"/>
    </projection>

</configuration>
-->

<net version="1.20" junctionCornerDetail="5" limitTurnSpeed="5.50" xmlns:xsi="http://www.w3.org/2001/XMLSchema-instance" xsi:noNamespaceSchemaLocation="http://sumo.dlr.de/xsd/net_file.xsd">

    <location netOffset="-442386.28,-1820836.26" convBoundary="0.00,0.00,5927.71,3717.98" origBoundary="80.460169,16.450733,80.553099,16.502170" projParameter="+proj=utm +zone=44 +ellps=WGS84 +datum=WGS84 +units=m +no_defs"/>

    <type id="highway.residential" priority="3" numLanes="1" speed="13.89" disallow="tram rail_urban rail rail_electric rail_fast ship container cable_car subway aircraft wheelchair scooter drone" oneway="0"/>
    <type id="highway.secondary" priority="11" numLanes="1" speed="27.78" disallow="tram rail_urban rail rail_electric rail_fast ship container cable_car subway aircraft wheelchair scooter drone" oneway="0"/>
    <type id="highway.service" priority="1" numLanes="1" speed="5.56" allow="pedestrian delivery bicycle" oneway="0"/>
    <type id="highway.tertiary" priority="10" numLanes="1" speed="22.22" disallow="tram rail_urban rail rail_electric rail_fast ship container cable_car subway aircraft wheelchair scooter drone" oneway="0"/>
    <type id="highway.unclassified" priority="4" numLanes="1" speed="13.89" disallow="tram rail_urban rail rail_electric rail_fast ship container cable_car subway aircraft wheelchair scooter drone" oneway="0"/>

    <edge id=":11673018695_0" function="internal">
        <lane id=":11673018695_0_0" index="0" allow="pedestrian delivery bicycle" speed="3.65" length="4.67" shape="4429.02,2834.03 4428.20,2835.21 4427.39,2835.60 4426.60,2835.18 4425.83,2833.96"/>
    </edge>
    <edge id=":11673018793_0" function="internal">
        <lane id=":11673018793_0_0" index="0" allow="pedestrian delivery bicycle" speed="3.65" length="4.67" shape="4343.50,2501.99 4342.32,2501.15 4341.94,2500.34 4342.37,2499.55 4343.59,2498.79"/>
    </edge>
    <edge id=":11673018795_0" function="internal">
        <lane id=":11673018795_0_0" index="0" allow="pedestrian delivery bicycle" speed="5.56" length="12.21" shape="4433.13,2636.79 4432.90,2649.00"/>
    </edge>
    <edge id=":11673018795_1" function="internal">
        <lane id=":11673018795_1_0" index="0" allow="pedestrian delivery bicycle" speed="5.56" length="13.16" shape="4433.13,2636.79 4432.48,2640.05 4430.84,2642.61 4428.55,2644.89 4425.94,2647.31"/>
    </edge>
    <edge id=":11673018795_2" function="internal">
        <lane id=":11673018795_2_0" index="0" allow="pedestrian delivery bicycle" speed="3.65" length="4.67" shape="4433.13,2636.79 4432.31,2637.98 4431.51,2638.37 4430.71,2637.96 4429.93,2636.74"/>
    </edge>
    <edge id=":11673018795_3" function="internal">
        <lane id=":11673018795_3_0" index="0" allow="pedestrian delivery bicycle" speed="5.56" length="10.88" shape="4423.69,2645.04 4426.15,2642.96 4428.12,2641.45 4429.43,2639.65 4429.93,2636.74"/>
    </edge>
    <edge id=":11673018795_4" function="internal">
        <lane id=":11673018795_4_0" index="0" allow="pedestrian delivery bicycle" speed="5.56" length="16.42" shape="4423.69,2645.04 4427.82,2641.77 4430.73,2641.34 4432.42,2643.75 4432.90,2649.00"/>
    </edge>
    <edge id=":11673018795_5" function="internal">
        <lane id=":11673018795_5_0" index="0" allow="pedestrian delivery bicycle" speed="3.65" length="4.67" shape="4423.69,2645.04 4425.10,2644.76 4425.95,2645.05 4426.23,2645.90 4425.94,2647.31"/>
    </edge>
    <edge id=":11673018795_6" function="internal">
        <lane id=":11673018795_6_0" index="0" allow="pedestrian delivery bicycle" speed="4.68" length="6.71" shape="4429.70,2648.93 4429.50,2646.79 4428.81,2645.80 4427.62,2645.98 4425.94,2647.31"/>
    </edge>
    <edge id=":11673018795_7" function="internal">
        <lane id=":11673018795_7_0" index="0" allow="pedestrian delivery bicycle" speed="5.56" length="12.19" shape="4429.70,2648.93 4429.93,2636.74"/>
    </edge>
    <edge id=":11673018795_8" function="internal">
        <lane id=":11673018795_8_0" index="0" allow="pedestrian delivery bicycle" speed="3.65" length="4.67" shape="4429.70,2648.93 4430.52,2647.75 4431.33,2647.36 4432.12,2647.78 4432.90,2649.00"/>
    </edge>
    <edge id=":11673018796_0" function="internal">
        <lane id=":11673018796_0_0" index="0" allow="pedestrian delivery bicycle" speed="3.65" length="4.67" shape="4239.26,2831.69 4237.84,2831.96 4237.00,2831.67 4236.72,2830.82 4237.01,2829.41"/>
    </edge>
    <edge id=":11944336154_0" function="internal">
        <lane id=":11944336154_0_0" index="0" disallow="tram rail_urban rail rail_electric rail_fast ship container cable_car subway aircraft wheelchair scooter drone" speed="3.65" length="4.67" shape="4668.59,3192.25 4667.81,3193.46 4667.02,3193.87 4666.21,3193.48 4665.39,3192.29"/>
    </edge>
    <edge id=":11944336166_0" function="internal">
        <lane id=":11944336166_0_0" index="0" disallow="tram rail_urban rail rail_electric rail_fast ship container cable_car subway aircraft wheelchair scooter drone" speed="6.49" length="9.03" shape="4766.80,2276.65 4765.47,2274.57 4763.79,2273.41 4761.77,2273.19 4759.39,2273.90"/>
    </edge>
    <edge id=":11944336166_1" function="internal">
        <lane id=":11944336166_1_0" index="0" disallow="tram rail_urban rail rail_electric rail_fast ship container cable_car subway aircraft wheelchair scooter drone" speed="25.00" length="14.40" shape="4766.80,2276.65 4760.86,2263.54"/>
    </edge>
    <edge id=":11944336166_2" function="internal">
        <lane id=":11944336166_2_0" index="0" disallow="tram rail_urban rail rail_electric rail_fast ship container cable_car subway aircraft wheelchair scooter drone" speed="3.65" length="1.44" shape="4766.80,2276.65 4767.04,2275.23"/>
    </edge>
    <edge id=":11944336166_9" function="internal">
        <lane id=":11944336166_9_0" index="0" disallow="tram rail_urban rail rail_electric rail_fast ship container cable_car subway aircraft wheelchair scooter drone" speed="3.65" length="3.23" shape="4767.04,2275.23 4767.60,2274.54 4768.49,2274.57 4769.72,2275.33"/>
    </edge>
    <edge id=":11944336166_3" function="internal">
        <lane id=":11944336166_3_0" index="0" disallow="tram rail_urban rail rail_electric rail_fast ship container cable_car subway aircraft wheelchair scooter drone" speed="25.00" length="14.40" shape="4763.77,2262.22 4769.72,2275.33"/>
    </edge>
    <edge id=":11944336166_4" function="internal">
        <lane id=":11944336166_4_0" index="0" disallow="tram rail_urban rail rail_electric rail_fast ship container cable_car subway aircraft wheelchair scooter drone" speed="8.02" length="4.06" shape="4763.77,2262.22 4764.85,2265.94 4764.83,2266.12"/>
    </edge>
    <edge id=":11944336166_5" function="internal">
        <lane id=":11944336166_5_0" index="0" disallow="tram rail_urban rail rail_electric rail_fast ship container cable_car subway aircraft wheelchair scooter drone" speed="3.65" length="1.44" shape="4763.77,2262.22 4763.54,2263.64"/>
    </edge>
    <edge id=":11944336166_10" function="internal">
        <lane id=":11944336166_10_0" index="0" disallow="tram rail_urban rail rail_electric rail_fast ship container cable_car subway aircraft wheelchair scooter drone" speed="8.02" length="10.15" shape="4764.83,2266.12 4764.49,2269.13 4762.66,2271.78 4759.39,2273.90"/>
    </edge>
    <edge id=":11944336166_11" function="internal">
        <lane id=":11944336166_11_0" index="0" disallow="tram rail_urban rail rail_electric rail_fast ship container cable_car subway aircraft wheelchair scooter drone" speed="3.65" length="3.23" shape="4763.54,2263.64 4762.97,2264.34 4762.08,2264.30 4760.86,2263.54"/>
    </edge>
    <edge id=":11944336166_6" function="internal">
        <lane id=":11944336166_6_0" index="0" disallow="tram rail_urban rail rail_electric rail_fast ship container cable_car subway aircraft wheelchair scooter drone" speed="6.53" length="9.07" shape="4758.05,2270.99 4760.14,2269.64 4761.31,2267.95 4761.55,2265.91 4760.86,2263.54"/>
    </edge>
    <edge id=":11944336166_7" function="internal">
        <lane id=":11944336166_7_0" index="0" disallow="tram rail_urban rail rail_electric rail_fast ship container cable_car subway aircraft wheelchair scooter drone" speed="7.99" length="14.22" shape="4758.05,2270.99 4761.79,2269.87 4764.98,2270.23 4767.62,2272.04 4769.72,2275.33"/>
    </edge>
    <edge id=":11944336166_8" function="internal">
        <lane id=":11944336166_8_0" index="0" disallow="tram rail_urban rail rail_electric rail_fast ship container cable_car subway aircraft wheelchair scooter drone" speed="3.65" length="4.67" shape="4758.05,2270.99 4759.47,2271.22 4760.17,2271.77 4760.15,2272.67 4759.39,2273.90"/>
    </edge>
    <edge id=":11944336168_0" function="internal">
        <lane id=":11944336168_0_0" index="0" allow="pedestrian delivery bicycle" speed="4.96" length="5.10" shape="4671.14,2729.62 4669.73,2729.70 4668.72,2730.21 4668.10,2731.17 4667.89,2732.57"/>
    </edge>
    <edge id=":11944336168_1" function="internal">
        <lane id=":11944336168_1_0" index="0" allow="pedestrian delivery bicycle" speed="5.56" length="9.92" shape="4671.14,2729.62 4661.26,2728.76"/>
    </edge>
    <edge id=":11944336168_2" function="internal">
        <lane id=":11944336168_2_0" index="0" allow="pedestrian delivery bicycle" speed="7.20" length="10.61" shape="4671.14,2729.62 4668.33,2728.97 4666.34,2727.58 4665.15,2725.47 4664.77,2722.62"/>
    </edge>
    <edge id=":11944336168_3" function="internal">
        <lane id=":11944336168_3_0" index="0" allow="pedestrian delivery bicycle" speed="3.65" length="4.67" shape="4671.14,2729.62 4670.01,2728.72 4669.69,2727.88 4670.15,2727.12 4671.42,2726.43"/>
    </edge>
    <edge id=":11944336168_4" function="internal">
        <lane id=":11944336168_4_0" index="0" allow="pedestrian delivery bicycle" speed="5.49" length="5.74" shape="4667.97,2722.64 4668.18,2724.19 4668.82,2725.33 4669.90,2726.08 4671.42,2726.43"/>
    </edge>
    <edge id=":11944336168_5" function="internal">
        <lane id=":11944336168_5_0" index="0" disallow="tram rail_urban rail rail_electric rail_fast ship container cable_car subway aircraft wheelchair scooter drone" speed="13.89" length="9.92" shape="4667.97,2722.64 4667.89,2732.57"/>
    </edge>
    <edge id=":11944336168_6" function="internal">
        <lane id=":11944336168_6_0" index="0" allow="pedestrian delivery bicycle" speed="6.80" length="2.23" shape="4667.97,2722.64 4667.64,2724.85"/>
    </edge>
    <edge id=":11944336168_14" function="internal">
        <lane id=":11944336168_14_0" index="0" allow="pedestrian delivery bicycle" speed="6.80" length="8.31" shape="4667.64,2724.85 4667.53,2725.53 4666.27,2727.51 4664.18,2728.59 4661.26,2728.76"/>
    </edge>
    <edge id=":11944336168_7" function="internal">
        <lane id=":11944336168_7_0" index="0" allow="pedestrian delivery bicycle" speed="4.96" length="5.09" shape="4661.53,2725.57 4662.94,2725.49 4663.95,2724.97 4664.56,2724.01 4664.77,2722.62"/>
    </edge>
    <edge id=":11944336168_8" function="internal">
        <lane id=":11944336168_8_0" index="0" allow="pedestrian delivery bicycle" speed="5.56" length="9.93" shape="4661.53,2725.57 4671.42,2726.43"/>
    </edge>
    <edge id=":11944336168_9" function="internal">
        <lane id=":11944336168_9_0" index="0" allow="pedestrian delivery bicycle" speed="7.19" length="10.61" shape="4661.53,2725.57 4664.33,2726.21 4666.33,2727.59 4667.51,2729.71 4667.89,2732.57"/>
    </edge>
    <edge id=":11944336168_10" function="internal">
        <lane id=":11944336168_10_0" index="0" allow="pedestrian delivery bicycle" speed="3.65" length="4.67" shape="4661.53,2725.57 4662.66,2726.47 4662.99,2727.30 4662.52,2728.06 4661.26,2728.76"/>
    </edge>
    <edge id=":11944336168_11" function="internal">
        <lane id=":11944336168_11_0" index="0" allow="pedestrian delivery bicycle" speed="5.47" length="5.73" shape="4664.69,2732.54 4664.49,2731.00 4663.85,2729.85 4662.77,2729.11 4661.26,2728.76"/>
    </edge>
    <edge id=":11944336168_12" function="internal">
        <lane id=":11944336168_12_0" index="0" disallow="tram rail_urban rail rail_electric rail_fast ship container cable_car subway aircraft wheelchair scooter drone" speed="13.89" length="9.92" shape="4664.69,2732.54 4664.77,2722.62"/>
    </edge>
    <edge id=":11944336168_13" function="internal">
        <lane id=":11944336168_13_0" index="0" allow="pedestrian delivery bicycle" speed="6.80" length="2.23" shape="4664.69,2732.54 4665.03,2730.33"/>
    </edge>
    <edge id=":11944336168_15" function="internal">
        <lane id=":11944336168_15_0" index="0" allow="pedestrian delivery bicycle" speed="6.80" length="8.33" shape="4665.03,2730.33 4665.13,2729.64 4666.40,2727.66 4668.50,2726.59 4671.42,2726.43"/>
    </edge>
    <edge id=":2747623048_0" function="internal">
        <lane id=":2747623048_0_0" index="0" disallow="tram rail_urban rail rail_electric rail_fast ship container cable_car subway aircraft wheelchair scooter drone" speed="3.65" length="4.67" shape="-1.12,2928.89 -1.42,2927.48 -1.15,2926.63 -0.30,2926.34 1.12,2926.60"/>
    </edge>
    <edge id=":2748490182_0" function="internal">
        <lane id=":2748490182_0_0" index="0" disallow="tram rail_urban rail rail_electric rail_fast ship container cable_car subway aircraft wheelchair scooter drone" speed="3.65" length="4.67" shape="5926.12,-0.19 5927.06,-1.29 5927.90,-1.59 5928.65,-1.10 5929.30,0.19"/>
    </edge>
    <edge id=":2748490420_0" function="internal">
        <lane id=":2748490420_0_0" index="0" disallow="tram rail_urban rail rail_electric rail_fast ship container cable_car subway aircraft wheelchair scooter drone" speed="12.40" length="13.00" shape="4752.65,1811.58 4749.20,1810.98 4746.08,1810.71 4743.10,1811.11 4740.04,1812.50"/>
    </edge>
    <edge id=":2748490420_1" function="internal">
        <lane id=":2748490420_1_0" index="0" disallow="tram rail_urban rail rail_electric rail_fast ship container cable_car subway aircraft wheelchair scooter drone" speed="7.41" length="16.72" shape="4752.65,1811.58 4747.88,1810.05 4745.58,1807.62 4745.74,1804.27 4748.38,1800.01"/>
    </edge>
    <edge id=":2748490420_2" function="internal">
        <lane id=":2748490420_2_0" index="0" disallow="tram rail_urban rail rail_electric rail_fast ship container cable_car subway aircraft wheelchair scooter drone" speed="3.65" length="4.67" shape="4752.65,1811.58 4751.61,1810.58 4751.35,1809.72 4751.89,1809.00 4753.21,1808.42"/>
    </edge>
    <edge id=":2748490420_3" function="internal">
        <lane id=":2748490420_3_0" index="0" disallow="tram rail_urban rail rail_electric rail_fast ship container cable_car subway aircraft wheelchair scooter drone" speed="5.68" length="9.23" shape="4750.85,1802.04 4749.40,1804.39 4749.31,1806.24 4750.58,1807.58 4753.21,1808.42"/>
    </edge>
    <edge id=":2748490420_4" function="internal">
        <lane id=":2748490420_4_0" index="0" disallow="tram rail_urban rail rail_electric rail_fast ship container cable_car subway aircraft wheelchair scooter drone" speed="27.78" length="15.10" shape="4750.85,1802.04 4748.42,1804.93 4745.84,1807.72 4743.06,1810.28 4740.04,1812.50"/>
    </edge>
    <edge id=":2748490420_5" function="internal">
        <lane id=":2748490420_5_0" index="0" disallow="tram rail_urban rail rail_electric rail_fast ship container cable_car subway aircraft wheelchair scooter drone" speed="3.65" length="1.44" shape="4750.85,1802.04 4749.47,1802.46"/>
    </edge>
    <edge id=":2748490420_9" function="internal">
        <lane id=":2748490420_9_0" index="0" disallow="tram rail_urban rail rail_electric rail_fast ship container cable_car subway aircraft wheelchair scooter drone" speed="3.65" length="3.23" shape="4749.47,1802.46 4748.60,1802.26 4748.23,1801.45 4748.38,1800.01"/>
    </edge>
    <edge id=":2748490420_6" function="internal">
        <lane id=":2748490420_6_0" index="0" disallow="tram rail_urban rail rail_electric rail_fast ship container cable_car subway aircraft wheelchair scooter drone" speed="27.78" length="14.09" shape="4738.33,1809.80 4741.23,1807.69 4743.75,1805.35 4746.06,1802.80 4748.38,1800.01"/>
    </edge>
    <edge id=":2748490420_7" function="internal">
        <lane id=":2748490420_7_0" index="0" disallow="tram rail_urban rail rail_electric rail_fast ship container cable_car subway aircraft wheelchair scooter drone" speed="13.41" length="3.18" shape="4738.33,1809.80 4741.24,1808.55"/>
    </edge>
    <edge id=":2748490420_8" function="internal">
        <lane id=":2748490420_8_0" index="0" disallow="tram rail_urban rail rail_electric rail_fast ship container cable_car subway aircraft wheelchair scooter drone" speed="3.65" length="1.44" shape="4738.33,1809.80 4739.77,1809.83"/>
    </edge>
    <edge id=":2748490420_10" function="internal">
        <lane id=":2748490420_10_0" index="0" disallow="tram rail_urban rail rail_electric rail_fast ship container cable_car subway aircraft wheelchair scooter drone" speed="13.41" length="12.09" shape="4741.24,1808.55 4741.74,1808.33 4745.51,1807.78 4749.40,1807.89 4753.21,1808.42"/>
    </edge>
    <edge id=":2748490420_11" function="internal">
        <lane id=":2748490420_11_0" index="0" disallow="tram rail_urban rail rail_electric rail_fast ship container cable_car subway aircraft wheelchair scooter drone" speed="3.65" length="3.23" shape="4739.77,1809.83 4740.53,1810.30 4740.62,1811.19 4740.04,1812.50"/>
    </edge>
    <edge id=":2748490444_0" function="internal">
        <lane id=":2748490444_0_0" index="0" disallow="tram rail_urban rail rail_electric rail_fast ship container cable_car subway aircraft wheelchair scooter drone" speed="7.42" length="10.18" shape="4549.57,1875.26 4546.61,1875.69 4544.36,1876.74 4542.84,1878.42 4542.03,1880.72"/>
    </edge>
    <edge id=":2748490444_1" function="internal">
        <lane id=":2748490444_1_0" index="0" disallow="tram rail_urban rail rail_electric rail_fast ship container cable_car subway aircraft wheelchair scooter drone" speed="7.67" length="2.76" shape="4549.57,1875.26 4546.83,1874.96"/>
    </edge>
    <edge id=":2748490444_2" function="internal">
        <lane id=":2748490444_2_0" index="0" disallow="tram rail_urban rail rail_electric rail_fast ship container cable_car subway aircraft wheelchair scooter drone" speed="3.65" length="1.32" shape="4549.57,1875.26 4548.45,1874.57"/>
    </edge>
    <edge id=":2748490444_9" function="internal">
        <lane id=":2748490444_9_0" index="0" disallow="tram rail_urban rail rail_electric rail_fast ship container cable_car subway aircraft wheelchair scooter drone" speed="7.67" length="12.30" shape="4546.83,1874.96 4545.34,1874.80 4542.56,1873.07 4541.25,1870.07 4541.40,1865.82"/>
    </edge>
    <edge id=":2748490444_10" function="internal">
        <lane id=":2748490444_10_0" index="0" disallow="tram rail_urban rail rail_electric rail_fast ship container cable_car subway aircraft wheelchair scooter drone" speed="3.65" length="3.35" shape="4548.45,1874.57 4548.35,1874.50 4547.92,1873.72 4548.29,1872.91 4549.47,1872.07"/>
    </edge>
    <edge id=":2748490444_3" function="internal">
        <lane id=":2748490444_3_0" index="0" disallow="tram rail_urban rail rail_electric rail_fast ship container cable_car subway aircraft wheelchair scooter drone" speed="6.10" length="9.06" shape="4544.55,1866.38 4544.46,1868.94 4545.25,1870.75 4546.92,1871.79 4549.47,1872.07"/>
    </edge>
    <edge id=":2748490444_4" function="internal">
        <lane id=":2748490444_4_0" index="0" disallow="tram rail_urban rail rail_electric rail_fast ship container cable_car subway aircraft wheelchair scooter drone" speed="25.00" length="14.56" shape="4544.55,1866.38 4542.03,1880.72"/>
    </edge>
    <edge id=":2748490444_5" function="internal">
        <lane id=":2748490444_5_0" index="0" disallow="tram rail_urban rail rail_electric rail_fast ship container cable_car subway aircraft wheelchair scooter drone" speed="3.65" length="4.67" shape="4544.55,1866.38 4543.55,1867.42 4542.69,1867.67 4541.97,1867.14 4541.40,1865.82"/>
    </edge>
    <edge id=":2748490444_6" function="internal">
        <lane id=":2748490444_6_0" index="0" disallow="tram rail_urban rail rail_electric rail_fast ship container cable_car subway aircraft wheelchair scooter drone" speed="25.00" length="14.58" shape="4538.88,1880.18 4541.40,1865.82"/>
    </edge>
    <edge id=":2748490444_7" function="internal">
        <lane id=":2748490444_7_0" index="0" disallow="tram rail_urban rail rail_electric rail_fast ship container cable_car subway aircraft wheelchair scooter drone" speed="8.78" length="14.61" shape="4538.88,1880.18 4540.04,1876.75 4542.19,1874.25 4545.33,1872.69 4549.47,1872.07"/>
    </edge>
    <edge id=":2748490444_8" function="internal">
        <lane id=":2748490444_8_0" index="0" disallow="tram rail_urban rail rail_electric rail_fast ship container cable_car subway aircraft wheelchair scooter drone" speed="3.65" length="1.44" shape="4538.88,1880.18 4539.87,1879.13"/>
    </edge>
    <edge id=":2748490444_11" function="internal">
        <lane id=":2748490444_11_0" index="0" disallow="tram rail_urban rail rail_electric rail_fast ship container cable_car subway aircraft wheelchair scooter drone" speed="3.65" length="3.23" shape="4539.87,1879.13 4540.72,1878.87 4541.44,1879.40 4542.03,1880.72"/>
    </edge>
    <edge id=":2748490457_0" function="internal">
        <lane id=":2748490457_0_0" index="0" disallow="tram rail_urban rail rail_electric rail_fast ship container cable_car subway aircraft wheelchair scooter drone" speed="13.92" length="14.37" shape="3772.84,1916.60 3769.51,1917.87 3766.72,1919.96 3764.25,1922.59 3761.90,1925.46"/>
    </edge>
    <edge id=":2748490457_1" function="internal">
        <lane id=":2748490457_1_0" index="0" disallow="tram rail_urban rail rail_electric rail_fast ship container cable_car subway aircraft wheelchair scooter drone" speed="22.22" length="16.20" shape="3772.84,1916.60 3768.96,1917.21 3764.81,1917.55 3760.64,1917.70 3756.70,1917.75"/>
    </edge>
    <edge id=":2748490457_2" function="internal">
        <lane id=":2748490457_2_0" index="0" disallow="tram rail_urban rail rail_electric rail_fast ship container cable_car subway aircraft wheelchair scooter drone" speed="3.65" length="1.44" shape="3772.84,1916.60 3771.50,1916.06"/>
    </edge>
    <edge id=":2748490457_9" function="internal">
        <lane id=":2748490457_9_0" index="0" disallow="tram rail_urban rail rail_electric rail_fast ship container cable_car subway aircraft wheelchair scooter drone" speed="3.65" length="3.23" shape="3771.50,1916.06 3770.95,1915.36 3771.17,1914.50 3772.18,1913.47"/>
    </edge>
    <edge id=":2748490457_3" function="internal">
        <lane id=":2748490457_3_0" index="0" disallow="tram rail_urban rail rail_electric rail_fast ship container cable_car subway aircraft wheelchair scooter drone" speed="22.22" length="15.56" shape="3756.68,1914.55 3760.53,1914.51 3764.47,1914.38 3768.40,1914.07 3772.18,1913.47"/>
    </edge>
    <edge id=":2748490457_4" function="internal">
        <lane id=":2748490457_4_0" index="0" disallow="tram rail_urban rail rail_electric rail_fast ship container cable_car subway aircraft wheelchair scooter drone" speed="7.38" length="5.34" shape="3756.68,1914.55 3761.99,1915.16"/>
    </edge>
    <edge id=":2748490457_5" function="internal">
        <lane id=":2748490457_5_0" index="0" disallow="tram rail_urban rail rail_electric rail_fast ship container cable_car subway aircraft wheelchair scooter drone" speed="3.65" length="1.44" shape="3756.68,1914.55 3757.89,1915.34"/>
    </edge>
    <edge id=":2748490457_10" function="internal">
        <lane id=":2748490457_10_0" index="0" disallow="tram rail_urban rail rail_electric rail_fast ship container cable_car subway aircraft wheelchair scooter drone" speed="7.38" length="12.88" shape="3761.99,1915.16 3762.33,1915.20 3765.08,1917.24 3764.94,1920.66 3761.90,1925.46"/>
    </edge>
    <edge id=":2748490457_11" function="internal">
        <lane id=":2748490457_11_0" index="0" disallow="tram rail_urban rail rail_electric rail_fast ship container cable_car subway aircraft wheelchair scooter drone" speed="3.65" length="3.23" shape="3757.89,1915.34 3758.29,1916.14 3757.90,1916.94 3756.70,1917.75"/>
    </edge>
    <edge id=":2748490457_6" function="internal">
        <lane id=":2748490457_6_0" index="0" disallow="tram rail_urban rail rail_electric rail_fast ship container cable_car subway aircraft wheelchair scooter drone" speed="5.52" length="9.50" shape="3759.42,1923.44 3761.01,1920.93 3761.08,1919.15 3759.65,1918.09 3756.70,1917.75"/>
    </edge>
    <edge id=":2748490457_7" function="internal">
        <lane id=":2748490457_7_0" index="0" disallow="tram rail_urban rail rail_electric rail_fast ship container cable_car subway aircraft wheelchair scooter drone" speed="14.87" length="16.45" shape="3759.42,1923.44 3762.06,1920.39 3765.15,1917.39 3768.57,1914.91 3772.18,1913.47"/>
    </edge>
    <edge id=":2748490457_8" function="internal">
        <lane id=":2748490457_8_0" index="0" disallow="tram rail_urban rail rail_electric rail_fast ship container cable_car subway aircraft wheelchair scooter drone" speed="3.65" length="4.67" shape="3759.42,1923.44 3760.80,1923.01 3761.67,1923.21 3762.04,1924.03 3761.90,1925.46"/>
    </edge>
    <edge id=":2748490463_0" function="internal">
        <lane id=":2748490463_0_0" index="0" disallow="tram rail_urban rail rail_electric rail_fast ship container cable_car subway aircraft wheelchair scooter drone" speed="5.60" length="9.94" shape="4541.01,1944.20 4539.86,1941.14 4538.43,1939.84 4536.73,1940.30 4534.76,1942.53"/>
    </edge>
    <edge id=":2748490463_1" function="internal">
        <lane id=":2748490463_1_0" index="0" disallow="tram rail_urban rail rail_electric rail_fast ship container cable_car subway aircraft wheelchair scooter drone" speed="27.78" length="15.18" shape="4541.01,1944.20 4540.09,1940.54 4539.23,1936.82 4538.47,1933.09 4537.87,1929.36"/>
    </edge>
    <edge id=":2748490463_2" function="internal">
        <lane id=":2748490463_2_0" index="0" disallow="tram rail_urban rail rail_electric rail_fast ship container cable_car subway aircraft wheelchair scooter drone" speed="3.65" length="1.44" shape="4541.01,1944.20 4541.48,1942.84"/>
    </edge>
    <edge id=":2748490463_9" function="internal">
        <lane id=":2748490463_9_0" index="0" disallow="tram rail_urban rail rail_electric rail_fast ship container cable_car subway aircraft wheelchair scooter drone" speed="3.65" length="3.23" shape="4541.48,1942.84 4542.16,1942.25 4543.03,1942.44 4544.11,1943.40"/>
    </edge>
    <edge id=":2748490463_3" function="internal">
        <lane id=":2748490463_3_0" index="0" disallow="tram rail_urban rail rail_electric rail_fast ship container cable_car subway aircraft wheelchair scooter drone" speed="27.78" length="14.81" shape="4541.04,1928.92 4541.63,1932.59 4542.36,1936.21 4543.20,1939.80 4544.11,1943.40"/>
    </edge>
    <edge id=":2748490463_4" function="internal">
        <lane id=":2748490463_4_0" index="0" disallow="tram rail_urban rail rail_electric rail_fast ship container cable_car subway aircraft wheelchair scooter drone" speed="13.52" length="3.02" shape="4541.04,1928.92 4540.79,1931.93"/>
    </edge>
    <edge id=":2748490463_5" function="internal">
        <lane id=":2748490463_5_0" index="0" disallow="tram rail_urban rail rail_electric rail_fast ship container cable_car subway aircraft wheelchair scooter drone" speed="3.65" length="1.44" shape="4541.04,1928.92 4540.41,1930.22"/>
    </edge>
    <edge id=":2748490463_10" function="internal">
        <lane id=":2748490463_10_0" index="0" disallow="tram rail_urban rail rail_electric rail_fast ship container cable_car subway aircraft wheelchair scooter drone" speed="13.52" length="12.30" shape="4540.79,1931.93 4540.74,1932.56 4539.21,1936.03 4537.02,1939.36 4534.76,1942.53"/>
    </edge>
    <edge id=":2748490463_11" function="internal">
        <lane id=":2748490463_11_0" index="0" disallow="tram rail_urban rail rail_electric rail_fast ship container cable_car subway aircraft wheelchair scooter drone" speed="3.65" length="3.23" shape="4540.41,1930.22 4539.67,1930.73 4538.82,1930.44 4537.87,1929.36"/>
    </edge>
    <edge id=":2748490463_6" function="internal">
        <lane id=":2748490463_6_0" index="0" disallow="tram rail_urban rail rail_electric rail_fast ship container cable_car subway aircraft wheelchair scooter drone" speed="12.20" length="12.41" shape="4532.53,1940.11 4534.65,1937.39 4536.51,1935.04 4537.72,1932.55 4537.87,1929.36"/>
    </edge>
    <edge id=":2748490463_7" function="internal">
        <lane id=":2748490463_7_0" index="0" disallow="tram rail_urban rail rail_electric rail_fast ship container cable_car subway aircraft wheelchair scooter drone" speed="7.38" length="18.46" shape="4532.53,1940.11 4536.17,1936.02 4539.32,1935.21 4541.96,1937.67 4544.11,1943.40"/>
    </edge>
    <edge id=":2748490463_8" function="internal">