<?xml version="1.0" encoding="UTF-8"?>

<!-- generated on 2024-11-18 20:45:06.700000 by randomTrips.py v1_21_0+0000-d7b3b481c43
<configuration>
    <net-file value="map.net.xml"/>
    <output-trip-file value="traffic_250.rou.xml"/>
    <end value="1000.0"/>
    <period value="2.0"/>
</configuration>
-->

<routes xmlns:xsi="http://www.w3.org/2001/XMLSchema-instance" xsi:noNamespaceSchemaLocation="http://sumo.dlr.de/xsd/routes_file.xsd">
    <trip id="0" depart="0.00" from="606151460" to="-1296361352#3"/>
    <trip id="1" depart="2.00" from="-846427920#1" to="-750542241#13"/>
    <trip id="2" depart="4.00" from="750542241#12" to="606151465#3"/>
    <trip id="3" depart="6.00" from="847165795" to="-606151453#4"/>
    <trip id="4" depart="8.00" from="-847177175" to="-1296361352#5"/>
    <trip id="5" depart="10.00" from="-687923992#1" to="1296361352#2"/>
    <trip id="6" depart="12.00" from="-1296361352#4" to="-606151466#0"/>
    <trip id="7" depart="14.00" from="606151463#0" to="606151452#2"/>
    <trip id="8" depart="16.00" from="-687923992#2" to="606151455#1"/>
    <trip id="9" depart="18.00" from="846430568#3" to="-1287953021#0"/>
    <trip id="10" depart="20.00" from="846430568#1" to="687923992#0"/>
    <trip id="11" depart="22.00" from="-847142240#3" to="-606151464#2"/>
    <trip id="12" depart="24.00" from="847183638#1" to="-847154158"/>
    <trip id="13" depart="26.00" from="-606151454#0" to="-606151454#2"/>
    <trip id="14" depart="28.00" from="847154155" to="606151457#3"/>
    <trip id="15" depart="30.00" from="846430568#2" to="750542241#2"/>
    <trip id="16" depart="32.00" from="1296361352#1" to="850352632#1"/>
    <trip id="17" depart="34.00" from="-847161320#1" to="606151452#5"/>
    <trip id="18" depart="36.00" from="847137451#1" to="606151462#0"/>
    <trip id="19" depart="38.00" from="847156294" to="606151454#0"/>
    <trip id="20" depart="40.00" from="606151465#5" to="-251145644#3"/>
    <trip id="21" depart="42.00" from="-750542241#1" to="-846430568#1"/>
    <trip id="22" depart="44.00" from="-606151453#2" to="-750542241#3"/>
    <trip id="23" depart="46.00" from="-606151455#0" to="-846427922#2"/>
    <trip id="24" depart="48.00" from="606151457#4" to="-847161321"/>
    <trip id="25" depart="50.00" from="-847161318#1" to="-750542241#0"/>
    <trip id="26" depart="52.00" from="-846427913#0" to="847182892#2"/>
    <trip id="27" depart="54.00" from="606151462#0" to="606151458"/>
    <trip id="28" depart="56.00" from="-606151464#4" to="750542241#2"/>
    <trip id="29" depart="58.00" from="-606151464#1" to="-847167762#0"/>
    <trip id="30" depart="60.00" from="850963551#0" to="606151463#6"/>
    <trip id="31" depart="62.00" from="251145644#1" to="606151465#6"/>
    <trip id="32" depart="64.00" from="847142240#2" to="846427923#0"/>
    <trip id="33" depart="66.00" from="-750542241#10" to="-1296361352#5"/>
    <trip id="34" depart="68.00" from="-847137450#0" to="-846427921#1"/>
    <trip id="35" depart="70.00" from="-606151466#0" to="847183636#0"/>
    <trip id="36" depart="72.00" from="847161319" to="-847137452"/>
    <trip id="37" depart="74.00" from="606151463#2" to="-847170655#0"/>
    <trip id="38" depart="76.00" from="847170655#1" to="-850352632#1"/>
    <trip id="39" depart="78.00" from="-750542241#9" to="-750542241#8"/>
    <trip id="40" depart="80.00" from="251145644#3" to="-846427920#1"/>
    <trip id="41" depart="82.00" from="606151452#5" to="847170655#0"/>
    <trip id="42" depart="84.00" from="-847167762#1" to="-750542241#11"/>
    <trip id="43" depart="86.00" from="850963552#0" to="1296361352#3"/>
    <trip id="44" depart="88.00" from="-606151454#0" to="-269696395#0"/>
    <trip id="45" depart="90.00" from="-606151457#0" to="606151463#1"/>
    <trip id="46" depart="92.00" from="846427922#2" to="-847182892#0"/>
    <trip id="47" depart="94.00" from="-606151452#3" to="-847167762#1"/>
    <trip id="48" depart="96.00" from="850963551#2" to="251145644#3"/>
    <trip id="49" depart="98.00" from="850352632#0" to="847161320#0"/>
    <trip id="50" depart="100.00" from="-1287953021#1" to="750542241#12"/>
    <trip id="51" depart="102.00" from="606151464#5" to="606151452#0"/>
    <trip id="52" depart="104.00" from="-750542241#9" to="606151463#6"/>
    <trip id="53" depart="106.00" from="-606151457#1" to="-847183637"/>
    <trip id="54" depart="108.00" from="-847182892#2" to="847183638#2"/>
    <trip id="55" depart="110.00" from="847161319" to="-846427920#1"/>
    <trip id="56" depart="112.00" from="-850950023#0" to="-606151465#1"/>
    <trip id="57" depart="114.00" from="847170655#1" to="847165793#1"/>
    <trip id="58" depart="116.00" from="-846430568#0" to="606151463#5"/>
    <trip id="59" depart="118.00" from="606151454#1" to="-606151464#1"/>
    <trip id="60" depart="120.00" from="750542241#8" to="606151452#0"/>
    <trip id="61" depart="122.00" from="846427920#1" to="251145644#3"/>
    <trip id="62" depart="124.00" from="-1189233973" to="-847142240#1"/>
    <trip id="63" depart="126.00" from="-1296361352#1" to="847182891#1"/>
    <trip id="64" depart="128.00" from="847161320#0" to="847154157"/>
    <trip id="65" depart="130.00" from="-846430568#3" to="-606151452#1"/>
    <trip id="66" depart="132.00" from="847161320#0" to="847183636#1"/>
    <trip id="67" depart="134.00" from="-606151453#4" to="1189233973"/>
    <trip id="68" depart="136.00" from="-606151452#5" to="846427921#1"/>
    <trip id="69" depart="138.00" from="750542241#9" to="-606151461"/>
    <trip id="70" depart="140.00" from="-847183639" to="606151452#4"/>
    <trip id="71" depart="142.00" from="-750542241#9" to="847165793#2"/>
    <trip id="72" depart="144.00" from="-847177176" to="-750542241#1"/>
    <trip id="73" depart="146.00" from="1296361352#2" to="750542241#2"/>
    <trip id="74" depart="148.00" from="-606151465#6" to="-847137451#1"/>
    <trip id="75" depart="150.00" from="850963551#2" to="606151464#2"/>
    <trip id="76" depart="152.00" from="-847182890" to="1296361352#6"/>
    <trip id="77" depart="154.00" from="-606151457#4" to="-750542241#13"/>
    <trip id="78" depart="156.00" from="-847142240#2" to="606151455#1"/>
    <trip id="79" depart="158.00" from="-750542241#10" to="-750542241#12"/>
    <trip id="80" depart="160.00" from="-606151452#6" to="606151463#3"/>
    <trip id="81" depart="162.00" from="-750542241#10" to="847177175"/>
    <trip id="82" depart="164.00" from="847156294" to="-606151452#6"/>
    <trip id="83" depart="166.00" from="-750542241#13" to="606151465#1"/>
    <trip id="84" depart="168.00" from="-687923992#0" to="-606151463#0"/>
    <trip id="85" depart="170.00" from="847182892#0" to="606151453#4"/>
    <trip id="86" depart="172.00" from="-847183638#3" to="846430568#1"/>
    <trip id="87" depart="174.00" from="846430568#2" to="-606151465#5"/>
    <trip id="88" depart="176.00" from="-606151454#2" to="-847183636#0"/>
    <trip id="89" depart="178.00" from="-847177176" to="-850940436"/>
    <trip id="90" depart="180.00" from="750542241#1" to="606151465#2"/>
    <trip id="91" depart="182.00" from="850940436" to="-606151455#0"/>
    <trip id="92" depart="184.00" from="-847167762#2" to="-847154159#0"/>
    <trip id="93" depart="186.00" from="847156294" to="-750542241#8"/>
    <trip id="94" depart="188.00" from="-606151465#2" to="-847183639"/>
    <trip id="95" depart="190.00" from="-847177175" to="-846427922#2"/>
    <trip id="96" depart="192.00" from="-750542241#4" to="847182890"/>
    <trip id="97" depart="194.00" from="-847182891#1" to="847161320#0"/>
    <trip id="98" depart="196.00" from="1296361352#6" to="-269696395#1"/>
    <trip id="99" depart="198.00" from="850963552#0" to="847154159#0"/>
    <trip id="100" depart="200.00" from="850333656#1" to="847182891#0"/>
    <trip id="101" depart="202.00" from="847154157" to="-606151464#5"/>
    <trip id="102" depart="204.00" from="-850352632#0" to="-750542241#1"/>
    <trip id="103" depart="206.00" from="-847167762#1" to="-606151452#1"/>
    <trip id="104" depart="208.00" from="-847161320#1" to="850950023#0"/>
    <trip id="105" depart="210.00" from="-750542241#9" to="846430568#1"/>
    <trip id="106" depart="212.00" from="-847182894" to="-847182892#1"/>
    <trip id="107" depart="214.00" from="847183638#1" to="850963552#0"/>
    <trip id="108" depart="216.00" from="251145644#1" to="750542241#11"/>
    <trip id="109" depart="218.00" from="-606151463#5" to="-846430572#0"/>
    <trip id="110" depart="220.00" from="850333656#1" to="606151454#1"/>
    <trip id="111" depart="222.00" from="1296361352#3" to="750542241#9"/>
    <trip id="112" depart="224.00" from="-606151452#1" to="606151455#0"/>
    <trip id="113" depart="226.00" from="-850950023#1" to="847161318#0"/>
    <trip id="114" depart="228.00" from="-606151463#6" to="847183639"/>
    <trip id="115" depart="230.00" from="-606151453#2" to="-606151465#4"/>
    <trip id="116" depart="232.00" from="606151453#1" to="606151465#3"/>
    <trip id="117" depart="234.00" from="-750542241#12" to="-606151457#4"/>
    <trip id="118" depart="236.00" from="847165793#2" to="-750542241#7"/>
    <trip id="119" depart="238.00" from="606151453#1" to="606151462#1"/>
    <trip id="120" depart="240.00" from="-847170655#1" to="606151455#0"/>
    <trip id="121" depart="242.00" from="1287953021#0" to="847182892#1"/>
    <trip id="122" depart="244.00" from="-606151465#7" to="750542241#11"/>
    <trip id="123" depart="246.00" from="-750542241#13" to="-847170655#0"/>
    <trip id="124" depart="248.00" from="606151464#2" to="-846430572#1"/>
    <trip id="125" depart="250.00" from="-847137450#0" to="846427913#0"/>
    <trip id="126" depart="252.00" from="-606151452#6" to="-850352632#1"/>
    <trip id="127" depart="254.00" from="850963552#0" to="850963552#0"/>
    <trip id="128" depart="256.00" from="-606151452#6" to="-750542241#1"/>
    <trip id="129" depart="258.00" from="-750542241#9" to="847182892#1"/>
    <trip id="130" depart="260.00" from="847161321" to="847165795"/>
    <trip id="131" depart="262.00" from="-847161318#1" to="-606151464#2"/>
    <trip id="132" depart="264.00" from="847137453" to="687923992#1"/>
    <trip id="133" depart="266.00" from="606151454#2" to="850950023#1"/>
    <trip id="134" depart="268.00" from="606151463#2" to="-1287953021#0"/>
    <trip id="135" depart="270.00" from="846430572#1" to="-846430572#1"/>
    <trip id="136" depart="272.00" from="606151463#5" to="847182894"/>
    <trip id="137" depart="274.00" from="-606151462#0" to="-606151457#3"/>
    <trip id="138" depart="276.00" from="-606151456" to="606151452#5"/>
    <trip id="139" depart="278.00" from="-846427913#1" to="606151457#4"/>
    <trip id="140" depart="280.00" from="606151466#1" to="-687923992#0"/>
    <trip id="141" depart="282.00" from="606151457#4" to="-846427921#0"/>
    <trip id="142" depart="284.00" from="-850352632#1" to="847177175"/>
    <trip id="143" depart="286.00" from="847154155" to="-606151454#1"/>
    <trip id="144" depart="288.00" from="-847177176" to="-846427922#2"/>
    <trip id="145" depart="290.00" from="-1287953019#0" to="846427922#1"/>
    <trip id="146" depart="292.00" from="606151458" to="-846427920#1"/>
    <trip id="147" depart="294.00" from="750542241#13" to="606151452#5"/>
    <trip id="148" depart="296.00" from="-847181758" to="-1287953021#1"/>
    <trip id="149" depart="298.00" from="-606151453#0" to="847167762#1"/>
    <trip id="150" depart="300.00" from="847167763" to="606151452#3"/>
    <trip id="151" depart="302.00" from="847137453" to="606151454#2"/>
    <trip id="152" depart="304.00" from="-606151463#3" to="-606151461"/>
    <trip id="153" depart="306.00" from="-846430572#0" to="847170655#0"/>
    <trip id="154" depart="308.00" from="846427923#0" to="847161320#0"/>
    <trip id="155" depart="310.00" from="847167762#1" to="-750542241#0"/>
    <trip id="156" depart="312.00" from="-750542241#4" to="-606151456"/>
    <trip id="157" depart="314.00" from="846427921#0" to="847167762#1"/>
    <trip id="158" depart="316.00" from="-847167763" to="606151462#1"/>
    <trip id="159" depart="318.00" from="-606151463#5" to="847182892#0"/>
    <trip id="160" depart="320.00" from="847156295" to="850352632#2"/>
    <trip id="161" depart="322.00" from="846430568#3" to="847167762#0"/>
    <trip id="162" depart="324.00" from="-1296361352#3" to="750542241#5"/>
    <trip id="163" depart="326.00" from="-847137453" to="847182892#0"/>
    <trip id="164" depart="328.00" from="846430568#0" to="847161320#1"/>
    <trip id="165" depart="330.00" from="846430568#3" to="-846427921#0"/>
    <trip id="166" depart="332.00" from="846427922#0" to="-606151457#0"/>
    <trip id="167" depart="334.00" from="847161318#1" to="847161319"/>
    <trip id="168" depart="336.00" from="-687923992#2" to="847137453"/>
    <trip id="169" depart="338.00" from="-847183636#0" to="-847137450#1"/>
    <trip id="170" depart="340.00" from="846427923#0" to="-750542241#14"/>
    <trip id="171" depart="342.00" from="-1296361352#3" to="-606151465#6"/>
    <trip id="172" depart="344.00" from="-847137451#1" to="847161320#1"/>
    <trip id="173" depart="346.00" from="850333656#0" to="-846427923#0"/>
    <trip id="174" depart="348.00" from="606151460" to="-847177176"/>
    <trip id="175" depart="350.00" from="850940435#1" to="269696395#1"/>
    <trip id="176" depart="352.00" from="847182892#1" to="-606151457#3"/>
    <trip id="177" depart="354.00" from="850333656#1" to="-606151465#1"/>
    <trip id="178" depart="356.00" from="847183639" to="-846427921#0"/>
    <trip id="179" depart="358.00" from="-606151456" to="-847183637"/>
    <trip id="180" depart="360.00" from="750542241#1" to="-847137451#1"/>
    <trip id="181" depart="362.00" from="606151454#0" to="1296361352#4"/>
    <trip id="182" depart="364.00" from="-847165793#1" to="606151454#0"/>
    <trip id="183" depart="366.00" from="-750542241#5" to="750542241#0"/>
    <trip id="184" depart="368.00" from="-1189233973" to="847182891#0"/>
    <trip id="185" depart="370.00" from="1296361352#2" to="750542241#12"/>
    <trip id="186" depart="372.00" from="750542241#14" to="606151465#1"/>
    <trip id="187" depart="374.00" from="-847156296" to="-606151452#5"/>
    <trip id="188" depart="376.00" from="606151463#5" to="-847154155"/>
    <trip id="189" depart="378.00" from="-847137450#0" to="847156296"/>
    <trip id="190" depart="380.00" from="687923992#0" to="-846430572#1"/>
    <trip id="191" depart="382.00" from="-846430572#0" to="-847182888"/>
    <trip id="192" depart="384.00" from="-847167762#2" to="-846430568#3"/>
    <trip id="193" depart="386.00" from="-606151460" to="-847182892#0"/>
    <trip id="194" depart="388.00" from="847182892#1" to="606151465#3"/>
    <trip id="195" depart="390.00" from="847167762#2" to="606151461"/>
    <trip id="196" depart="392.00" from="-846430568#1" to="606151452#3"/>
    <trip id="197" depart="394.00" from="-1189233973" to="-846430568#0"/>
    <trip id="198" depart="396.00" from="-847181759" to="606151454#1"/>
    <trip id="199" depart="398.00" from="606151463#2" to="-850940435#1"/>
    <trip id="200" depart="400.00" from="-847182891#0" to="-750542241#1"/>
    <trip id="201" depart="402.00" from="-847183638#3" to="847170655#1"/>
    <trip id="202" depart="404.00" from="846427923#0" to="-606151464#6"/>
    <trip id="203" depart="406.00" from="-606151453#3" to="1296361352#5"/>
    <trip id="204" depart="408.00" from="606151457#3" to="-847154158"/>
    <trip id="205" depart="410.00" from="847137450#0" to="846427913#0"/>
    <trip id="206" depart="412.00" from="606151464#2" to="-750542241#13"/>
    <trip id="207" depart="414.00" from="-606151465#5" to="-1296361352#3"/>
    <trip id="208" depart="416.00" from="-750542241#2" to="-850963551#1"/>
    <trip id="209" depart="418.00" from="847154157" to="-606151452#6"/>
    <trip id="210" depart="420.00" from="-847170655#0" to="606151463#2"/>
    <trip id="211" depart="422.00" from="-606151465#4" to="606151466#1"/>
    <trip id="212" depart="424.00" from="-850940435#1" to="-750542241#7"/>
    <trip id="213" depart="426.00" from="606151463#2" to="-1287953019#0"/>
    <trip id="214" depart="428.00" from="750542241#4" to="846427922#1"/>
    <trip id="215" depart="430.00" from="-606151456" to="-847182892#1"/>
    <trip id="216" depart="432.00" from="-606151464#5" to="847183638#3"/>
    <trip id="217" depart="434.00" from="1189233973" to="-269696395#1"/>
    <trip id="218" depart="436.00" from="-750542241#3" to="847156296"/>
    <trip id="219" depart="438.00" from="-847182894" to="847137450#1"/>
    <trip id="220" depart="440.00" from="606151464#0" to="850950023#1"/>
    <trip id="221" depart="442.00" from="606151453#2" to="847183637"/>
    <trip id="222" depart="444.00" from="847165793#2" to="606151460"/>
    <trip id="223" depart="446.00" from="687923992#0" to="1296361352#2"/>
    <trip id="224" depart="448.00" from="847137452" to="606151452#3"/>
    <trip id="225" depart="450.00" from="847167762#0" to="750542241#7"/>
    <trip id="226" depart="452.00" from="-847183638#3" to="-846427920#0"/>
    <trip id="227" depart="454.00" from="-750542241#3" to="606151463#5"/>
    <trip id="228" depart="456.00" from="750542241#9" to="251145644#0"/>
    <trip id="229" depart="458.00" from="606151457#1" to="-846427922#1"/>
    <trip id="230" depart="460.00" from="-606151453#1" to="-846430568#0"/>
    <trip id="231" depart="462.00" from="-846427913#1" to="-847142240#0"/>
    <trip id="232" depart="464.00" from="1296361352#3" to="-606151463#2"/>
    <trip id="233" depart="466.00" from="-750542241#10" to="606151466#0"/>
    <trip id="234" depart="468.00" from="606151465#5" to="-606151452#3"/>
    <trip id="235" depart="470.00" from="-847167763" to="606151452#2"/>
    <trip id="236" depart="472.00" from="-847170655#0" to="-687923992#1"/>
    <trip id="237" depart="474.00" from="-847177175" to="847177175"/>
    <trip id="238" depart="476.00" from="606151452#5" to="606151466#1"/>
    <trip id="239" depart="478.00" from="847156293" to="846427922#0"/>
    <trip id="240" depart="480.00" from="-847161320#1" to="-1287953021#0"/>
    <trip id="241" depart="482.00" from="-847154158" to="846427913#0"/>
    <trip id="242" depart="484.00" from="847154159#0" to="847183638#2"/>
    <trip id="243" depart="486.00" from="-847170655#1" to="750542241#8"/>
    <trip id="244" depart="488.00" from="1296361352#5" to="606151457#3"/>
    <trip id="245" depart="490.00" from="-687923992#2" to="-750542241#11"/>
    <trip id="246" depart="492.00" from="-847182889" to="-1296361352#4"/>
    <trip id="247" depart="494.00" from="-847142240#1" to="606151465#4"/>
    <trip id="248" depart="496.00" from="-847167762#2" to="-606151464#5"/>
    <trip id="249" depart="498.00" from="-847183638#1" to="-606151461"/>
</routes>
