<?xml version="1.0" encoding="UTF-8"?>

<!-- generated on 2024-11-18 20:44:42.684930 by randomTrips.py v1_21_0+0000-d7b3b481c43
<configuration>
    <net-file value="map.net.xml"/>
    <output-trip-file value="traffic_150.rou.xml"/>
    <end value="500.0"/>
    <period value="3.33"/>
</configuration>
-->

<routes xmlns:xsi="http://www.w3.org/2001/XMLSchema-instance" xsi:noNamespaceSchemaLocation="http://sumo.dlr.de/xsd/routes_file.xsd">
    <trip id="0" depart="0.00" from="606151460" to="-1296361352#3"/>
    <trip id="1" depart="3.33" from="-846427920#1" to="-750542241#13"/>
    <trip id="2" depart="6.66" from="750542241#12" to="606151465#3"/>
    <trip id="3" depart="9.99" from="847165795" to="-606151453#4"/>
    <trip id="4" depart="13.32" from="-847177175" to="-1296361352#5"/>
    <trip id="5" depart="16.65" from="-687923992#1" to="1296361352#2"/>
    <trip id="6" depart="19.98" from="-1296361352#4" to="-606151466#0"/>
    <trip id="7" depart="23.31" from="606151463#0" to="606151452#2"/>
    <trip id="8" depart="26.64" from="-687923992#2" to="606151455#1"/>
    <trip id="9" depart="29.97" from="846430568#3" to="-1287953021#0"/>
    <trip id="10" depart="33.30" from="846430568#1" to="687923992#0"/>
    <trip id="11" depart="36.63" from="-847142240#3" to="-606151464#2"/>
    <trip id="12" depart="39.96" from="847183638#1" to="-847154158"/>
    <trip id="13" depart="43.29" from="-606151454#0" to="-606151454#2"/>
    <trip id="14" depart="46.62" from="847154155" to="606151457#3"/>
    <trip id="15" depart="49.95" from="846430568#2" to="750542241#2"/>
    <trip id="16" depart="53.28" from="1296361352#1" to="850352632#1"/>
    <trip id="17" depart="56.61" from="-847161320#1" to="606151452#5"/>
    <trip id="18" depart="59.94" from="847137451#1" to="606151462#0"/>
    <trip id="19" depart="63.27" from="847156294" to="606151454#0"/>
    <trip id="20" depart="66.60" from="606151465#5" to="-251145644#3"/>
    <trip id="21" depart="69.93" from="-750542241#1" to="-846430568#1"/>
    <trip id="22" depart="73.26" from="-606151453#2" to="-750542241#3"/>
    <trip id="23" depart="76.59" from="-606151455#0" to="-846427922#2"/>
    <trip id="24" depart="79.92" from="606151457#4" to="-847161321"/>
    <trip id="25" depart="83.25" from="-847161318#1" to="-750542241#0"/>
    <trip id="26" depart="86.58" from="-846427913#0" to="847182892#2"/>
    <trip id="27" depart="89.91" from="606151462#0" to="606151458"/>
    <trip id="28" depart="93.24" from="-606151464#4" to="750542241#2"/>
    <trip id="29" depart="96.57" from="-606151464#1" to="-847167762#0"/>
    <trip id="30" depart="99.90" from="850963551#0" to="606151463#6"/>
    <trip id="31" depart="103.23" from="251145644#1" to="606151465#6"/>
    <trip id="32" depart="106.56" from="847142240#2" to="846427923#0"/>
    <trip id="33" depart="109.89" from="-750542241#10" to="-1296361352#5"/>
    <trip id="34" depart="113.22" from="-847137450#0" to="-846427921#1"/>
    <trip id="35" depart="116.55" from="-606151466#0" to="847183636#0"/>
    <trip id="36" depart="119.88" from="847161319" to="-847137452"/>
    <trip id="37" depart="123.21" from="606151463#2" to="-847170655#0"/>
    <trip id="38" depart="126.54" from="847170655#1" to="-850352632#1"/>
    <trip id="39" depart="129.87" from="-750542241#9" to="-750542241#8"/>
    <trip id="40" depart="133.20" from="251145644#3" to="-846427920#1"/>
    <trip id="41" depart="136.53" from="606151452#5" to="847170655#0"/>
    <trip id="42" depart="139.86" from="-847167762#1" to="-750542241#11"/>
    <trip id="43" depart="143.19" from="850963552#0" to="1296361352#3"/>
    <trip id="44" depart="146.52" from="-606151454#0" to="-269696395#0"/>
    <trip id="45" depart="149.85" from="-606151457#0" to="606151463#1"/>
    <trip id="46" depart="153.18" from="846427922#2" to="-847182892#0"/>
    <trip id="47" depart="156.51" from="-606151452#3" to="-847167762#1"/>
    <trip id="48" depart="159.84" from="850963551#2" to="251145644#3"/>
    <trip id="49" depart="163.17" from="850352632#0" to="847161320#0"/>
    <trip id="50" depart="166.50" from="-1287953021#1" to="750542241#12"/>
    <trip id="51" depart="169.83" from="606151464#5" to="606151452#0"/>
    <trip id="52" depart="173.16" from="-750542241#9" to="606151463#6"/>
    <trip id="53" depart="176.49" from="-606151457#1" to="-847183637"/>
    <trip id="54" depart="179.82" from="-847182892#2" to="847183638#2"/>
    <trip id="55" depart="183.15" from="847161319" to="-846427920#1"/>
    <trip id="56" depart="186.48" from="-850950023#0" to="-606151465#1"/>
    <trip id="57" depart="189.81" from="847170655#1" to="847165793#1"/>
    <trip id="58" depart="193.14" from="-846430568#0" to="606151463#5"/>
    <trip id="59" depart="196.47" from="606151454#1" to="-606151464#1"/>
    <trip id="60" depart="199.80" from="750542241#8" to="606151452#0"/>
    <trip id="61" depart="203.13" from="846427920#1" to="251145644#3"/>
    <trip id="62" depart="206.46" from="-1189233973" to="-847142240#1"/>
    <trip id="63" depart="209.79" from="-1296361352#1" to="847182891#1"/>
    <trip id="64" depart="213.12" from="847161320#0" to="847154157"/>
    <trip id="65" depart="216.45" from="-846430568#3" to="-606151452#1"/>
    <trip id="66" depart="219.78" from="847161320#0" to="847183636#1"/>
    <trip id="67" depart="223.11" from="-606151453#4" to="1189233973"/>
    <trip id="68" depart="226.44" from="-606151452#5" to="846427921#1"/>
    <trip id="69" depart="229.77" from="750542241#9" to="-606151461"/>
    <trip id="70" depart="233.10" from="-847183639" to="606151452#4"/>
    <trip id="71" depart="236.43" from="-750542241#9" to="847165793#2"/>
    <trip id="72" depart="239.76" from="-847177176" to="-750542241#1"/>
    <trip id="73" depart="243.09" from="1296361352#2" to="750542241#2"/>
    <trip id="74" depart="246.42" from="-606151465#6" to="-847137451#1"/>
    <trip id="75" depart="249.75" from="850963551#2" to="606151464#2"/>
    <trip id="76" depart="253.08" from="-847182890" to="1296361352#6"/>
    <trip id="77" depart="256.41" from="-606151457#4" to="-750542241#13"/>
    <trip id="78" depart="259.74" from="-847142240#2" to="606151455#1"/>
    <trip id="79" depart="263.07" from="-750542241#10" to="-750542241#12"/>
    <trip id="80" depart="266.40" from="-606151452#6" to="606151463#3"/>
    <trip id="81" depart="269.73" from="-750542241#10" to="847177175"/>
    <trip id="82" depart="273.06" from="847156294" to="-606151452#6"/>
    <trip id="83" depart="276.39" from="-750542241#13" to="606151465#1"/>
    <trip id="84" depart="279.72" from="-687923992#0" to="-606151463#0"/>
    <trip id="85" depart="283.05" from="847182892#0" to="606151453#4"/>
    <trip id="86" depart="286.38" from="-847183638#3" to="846430568#1"/>
    <trip id="87" depart="289.71" from="846430568#2" to="-606151465#5"/>
    <trip id="88" depart="293.04" from="-606151454#2" to="-847183636#0"/>
    <trip id="89" depart="296.37" from="-847177176" to="-850940436"/>
    <trip id="90" depart="299.70" from="750542241#1" to="606151465#2"/>
    <trip id="91" depart="303.03" from="850940436" to="-606151455#0"/>
    <trip id="92" depart="306.36" from="-847167762#2" to="-847154159#0"/>
    <trip id="93" depart="309.69" from="847156294" to="-750542241#8"/>
    <trip id="94" depart="313.02" from="-606151465#2" to="-847183639"/>
    <trip id="95" depart="316.35" from="-847177175" to="-846427922#2"/>
    <trip id="96" depart="319.68" from="-750542241#4" to="847182890"/>
    <trip id="97" depart="323.01" from="-847182891#1" to="847161320#0"/>
    <trip id="98" depart="326.34" from="1296361352#6" to="-269696395#1"/>
    <trip id="99" depart="329.67" from="850963552#0" to="847154159#0"/>
    <trip id="100" depart="333.00" from="850333656#1" to="847182891#0"/>
    <trip id="101" depart="336.33" from="847154157" to="-606151464#5"/>
    <trip id="102" depart="339.66" from="-850352632#0" to="-750542241#1"/>
    <trip id="103" depart="342.99" from="-847167762#1" to="-606151452#1"/>
    <trip id="104" depart="346.32" from="-847161320#1" to="850950023#0"/>
    <trip id="105" depart="349.65" from="-750542241#9" to="846430568#1"/>
    <trip id="106" depart="352.98" from="-847182894" to="-847182892#1"/>
    <trip id="107" depart="356.31" from="847183638#1" to="850963552#0"/>
    <trip id="108" depart="359.64" from="251145644#1" to="750542241#11"/>
    <trip id="109" depart="362.97" from="-606151463#5" to="-846430572#0"/>
    <trip id="110" depart="366.30" from="850333656#1" to="606151454#1"/>
    <trip id="111" depart="369.63" from="1296361352#3" to="750542241#9"/>
    <trip id="112" depart="372.96" from="-606151452#1" to="606151455#0"/>
    <trip id="113" depart="376.29" from="-850950023#1" to="847161318#0"/>
    <trip id="114" depart="379.62" from="-606151463#6" to="847183639"/>
    <trip id="115" depart="382.95" from="-606151453#2" to="-606151465#4"/>
    <trip id="116" depart="386.28" from="606151453#1" to="606151465#3"/>
    <trip id="117" depart="389.61" from="-750542241#12" to="-606151457#4"/>
    <trip id="118" depart="392.94" from="847165793#2" to="-750542241#7"/>
    <trip id="119" depart="396.27" from="606151453#1" to="606151462#1"/>
    <trip id="120" depart="399.60" from="-847170655#1" to="606151455#0"/>
    <trip id="121" depart="402.93" from="1287953021#0" to="847182892#1"/>
    <trip id="122" depart="406.26" from="-606151465#7" to="750542241#11"/>
    <trip id="123" depart="409.59" from="-750542241#13" to="-847170655#0"/>
    <trip id="124" depart="412.92" from="606151464#2" to="-846430572#1"/>
    <trip id="125" depart="416.25" from="-847137450#0" to="846427913#0"/>
    <trip id="126" depart="419.58" from="-606151452#6" to="-850352632#1"/>
    <trip id="127" depart="422.91" from="850963552#0" to="850963552#0"/>
    <trip id="128" depart="426.24" from="-606151452#6" to="-750542241#1"/>
    <trip id="129" depart="429.57" from="-750542241#9" to="847182892#1"/>
    <trip id="130" depart="432.90" from="847161321" to="847165795"/>
    <trip id="131" depart="436.23" from="-847161318#1" to="-606151464#2"/>
    <trip id="132" depart="439.56" from="847137453" to="687923992#1"/>
    <trip id="133" depart="442.89" from="606151454#2" to="850950023#1"/>
    <trip id="134" depart="446.22" from="606151463#2" to="-1287953021#0"/>
    <trip id="135" depart="449.55" from="846430572#1" to="-846430572#1"/>
    <trip id="136" depart="452.88" from="606151463#5" to="847182894"/>
    <trip id="137" depart="456.21" from="-606151462#0" to="-606151457#3"/>
    <trip id="138" depart="459.54" from="-606151456" to="606151452#5"/>
    <trip id="139" depart="462.87" from="-846427913#1" to="606151457#4"/>
    <trip id="140" depart="466.20" from="606151466#1" to="-687923992#0"/>
    <trip id="141" depart="469.53" from="606151457#4" to="-846427921#0"/>
    <trip id="142" depart="472.86" from="-850352632#1" to="847177175"/>
    <trip id="143" depart="476.19" from="847154155" to="-606151454#1"/>
    <trip id="144" depart="479.52" from="-847177176" to="-846427922#2"/>
    <trip id="145" depart="482.85" from="-1287953019#0" to="846427922#1"/>
    <trip id="146" depart="486.18" from="606151458" to="-846427920#1"/>
    <trip id="147" depart="489.51" from="750542241#13" to="606151452#5"/>
    <trip id="148" depart="492.84" from="-847181758" to="-1287953021#1"/>
    <trip id="149" depart="496.17" from="-606151453#0" to="847167762#1"/>
    <trip id="150" depart="499.50" from="847167763" to="606151452#3"/>
</routes>
